units(length='cm', time='s', quantity='mol', act_energy='kcal/mol')

ideal_gas(name="'MCH_42'",
          elements="H C O N Ne Ar He Si S Cl",
          species="""N2          Ne          C7H8O(1)    O2(2)       R2(3)       
                     R1(4)       butane(5)   butR1(6)    butR2(7)    butROO1(8)  
                     butROO2(9)  C4H9O2(10)  C4H9O2(11)  C4H9O4(12)  C4H9O4(13)  
                     C4H8O3(14)  C4H9O4(15)  C4H9O4(16)  C4H8O3(17)  C4H7O2(18)  
                     C4H7O2(19)  C3H5O(20)   H(21)       O(22)       OH(23)      
                     H2(24)      H2O(25)     HO2(26)     H2O2(27)    Ar(28)      
                     He(29)      CO(30)      CO2(31)     HCO(32)     C(33)       
                     CH(34)      CH2(35)     CH3(36)     CH2O(37)    HCCO(38)    
                     C2H(39)     C2H2(40)    H2CC(41)    CH2(S)(42)  CH3OH(43)   
                     CH3O(44)    CH2CO(45)   C2H3(46)    C2H4(47)    CH4(48)     
                     C2H6(49)    C2H5(50)    CH2OH(51)   CH3CO(52)   CH2CHO(53)  
                     CH3CHO(54)  C2H5O2(59)  C3H7(60)    S(149)(61)  C3H6(62)    
                     CH3O2(63)   C4H8(66)    C2H3O3(68)  C4H8(69)    CH4O2(71)   
                     C3H5O3(73)  CHO3(78)    C2H3O2(97)  C2HO3(101)  CH3O2(152)  
                     C7H7O(294)  C7H7O(298)  S(398)      C3H5(422)   C2H5O(425)  
                     C7H7O(434)  C7H6O(442)  C2H5O(445)  CH3O3(475)  S(847)      
                     S(848)      S(849)      S(863)      C3H5(869)   C3H6O(871)  
                     C3H6O(872)  C3H7O(874)  S(1146)     S(1153)     S(1172)     
                     S(1185)     S(1190)     S(1217)     S(1321)     S(1322)     
                     S(1354)     S(1430)     S(1474)     S(1581)     S(1653)     
                     C4H7(1696)  S(1734)     S(1919)     S(1921)     S(1931)     
                     CHO3(2062)  S(2068)     S(2073)     S(2163)     S(2220)     
                     S(2276)     S(2362)     S(2439)     S(2493)     S(2536)     
                     S(2543)     S(2591)     S(2598)     S(2603)     S(2604)     
                     S(2628)     S(2629)     S(2868)     S(2869)     S(2879)     
                     S(3080)     S(3122)     S(3124)     S(3148)     S(3302)     
                     S(3460)     S(3643)     S(3656)     CHO2(3867)  S(4095)     
                     S(4096)     S(4105)     S(4113)     S(4255)     S(4256)     
                     CCOO(4274)  S(4853)     S(4872)     S(4886)     S(5183)     
                     S(5349)     S(5350)     S(5407)     S(5549)     S(5627)     
                     S(5676)     S(5727)     S(5837)     S(5842)     S(5868)     
                     S(5869)     S(6053)     S(6056)     S(6229)     S(6308)     
                     S(6523)     S(6536)     S(6724)     S(6725)     S(6726)     
                     S(6834)     S(6954)     S(7144)     S(7451)     S(7470)     
                     S(7471)     S(7550)     S(7551)     S(7552)     S(7553)     
                     S(7554)     S(7718)     S(7729)     S(7845)     C3H4(8139)  
                     S(8143)     S(8154)     S(8220)     S(8645)     C3H3(8649)  
                     S(8717)     S(9221)     S(9222)     S(9434)     S(9852)     
                     S(10052)    S(10059)    S(10067)    S(10082)    S(10088)    
                     S(10455)    S(10457)    S(10461)    S(10474)    S(10536)    
                     S(11140)    S(11291)    S(11652)    S(11653)    S(12110)    
                     S(12315)    S(12891)    S(12894)    S(13122)    S(13148)    
                     S(13155)    S(13670)    S(13673)    S(13883)    S(13885)    
                     S(13893)    S(13899)    S(13921)    S(14211)    S(14212)    
                     S(14213)    S(14258)    S(14425)    S(14460)    S(14497)    
                     S(14500)    S(14502)    S(14504)    S(14992)    S(15009)    
                     S(15010)    S(15043)    S(15057)    S(15058)    S(15063)    
                     S(15253)    S(15789)    S(15790)    S(15791)    S(16029)    
                     S(16030)    S(16031)    S(16271)    S(16272)    S(16273)    
                     S(16392)    S(16581)    S(16886)    S(16908)    S(17268)    
                     S(17577)    S(17803)    S(17836)    S(18290)    S(18409)    
                     S(19123)    S(19253)    S(19628)    S(19693)    S(19700)    
                     S(19711)    S(19712)    S(19717)    S(19718)    S(19719)    
                     S(19728)    S(20075)    S(20165)    S(20178)    S(20263)    
                     S(20339)    S(20475)    S(20622)    S(20691)    S(20692)    
                     S(20777)    S(21784)    S(21802)    S(21810)    S(22448)    
                     S(22683)    S(23312)    S(24355)    S(24357)    S(24371)    
                     S(24514)    S(24550)    S(24788)    S(24821)    S(24822)    
                     S(25043)    S(25172)    S(25174)    S(25183)    S(25529)    
                     S(25752)    S(25844)    S(25845)    S(26402)    S(26979)    
                     S(27384)    S(27481)    S(27582)    S(27783)    S(27806)    
                     S(27813)    S(28197)    S(28277)    S(28307)    S(28329)    
                     S(28360)    S(28361)    S(28373)    S(28558)    S(28616)    
                     S(28647)    S(28662)    S(28964)    S(28967)    S(28994)    
                     S(30051)    S(30073)    S(30277)    S(30300)    S(30336)    
                     S(31033)    S(31323)    S(31384)    S(31391)    S(31425)    
                     S(31608)    S(32586)    S(33013)    S(33111)    S(33302)    
                     S(34311)    S(34327)    S(34344)    S(34352)    S(34363)    
                     S(34432)    S(34876)    S(35759)    S(35766)    S(35910)    
                     S(37027)    S(37701)    S(37707)    S(37715)    S(38393)    
                     S(38399)    S(38762)    S(38767)    S(39434)""",
          reactions='all',
          initial_state=state(temperature=300.0, pressure=OneAtm))

#-------------------------------------------------------------------------------
# Species data
#-------------------------------------------------------------------------------

species(name='N2',
        atoms='N:2',
        thermo=(NASA([200.00, 1000.00],
                     [ 3.53101000E+00, -1.23661000E-04, -5.02999000E-07,
                       2.43531000E-09, -1.40881000E-12, -1.04698000E+03,
                       2.96747000E+00]),
                NASA([1000.00, 6000.00],
                     [ 2.95258000E+00,  1.39690000E-03, -4.92632000E-07,
                       7.86010000E-11, -4.60755000E-15, -9.23949000E+02,
                       5.87189000E+00])))

species(name='Ne',
        atoms='Ne:1',
        thermo=(NASA([200.00, 1000.00],
                     [ 2.50000000E+00,  0.00000000E+00,  0.00000000E+00,
                       0.00000000E+00,  0.00000000E+00, -7.45375000E+02,
                       3.35532000E+00]),
                NASA([1000.00, 6000.00],
                     [ 2.50000000E+00,  0.00000000E+00,  0.00000000E+00,
                       0.00000000E+00,  0.00000000E+00, -7.45375000E+02,
                       3.35532000E+00])))

species(name='C7H8O(1)',
        atoms='H:8 C:7 O:1',
        thermo=(NASA([100.00, 989.86],
                     [ 1.29903053E+00,  4.37245862E-02,  2.25959486E-05,
                      -5.86697562E-08,  2.48461201E-11, -1.76664044E+04,
                       2.20884418E+01]),
                NASA([989.86, 5000.00],
                     [ 1.44277630E+01,  2.81744414E-02, -1.06701822E-05,
                       2.00975807E-09, -1.45891154E-13, -2.21028306E+04,
                      -5.03969211E+01])))

species(name='O2(2)',
        atoms='O:2',
        thermo=(NASA([100.00, 1102.89],
                     [ 3.53812598E+00, -1.19776173E-03,  5.21778986E-06,
                      -4.73172795E-09,  1.37958495E-12, -1.03915435E+03,
                       4.66496714E+00]),
                NASA([1102.89, 5000.00],
                     [ 3.14645572E+00,  1.73420526E-03, -8.25529518E-07,
                       1.63882193E-10, -1.18050139E-14, -1.04468394E+03,
                       6.17616863E+00])))

species(name='R2(3)',
        atoms='H:13 C:6 O:1',
        thermo=(NASA([100.00, 1317.55],
                     [ 1.05361291E+00,  7.08871317E-02, -4.49405983E-05,
                       1.55264720E-08, -2.43172248E-12, -1.21576237E+04,
                       2.82428508E+01]),
                NASA([1317.55, 5000.00],
                     [ 7.49006479E+00,  5.13463895E-02, -2.26938342E-05,
                       4.26979699E-09, -2.95804005E-13, -1.38536867E+04,
                      -4.58429030E+00])))

species(name='R1(4)',
        atoms='H:13 C:6 O:1',
        thermo=(NASA([100.00, 1570.14],
                     [ 5.57937632E-01,  7.29380024E-02, -4.67409383E-05,
                       1.56788400E-08, -2.21529119E-12, -1.42342412E+04,
                       2.99299049E+01]),
                NASA([1570.14, 5000.00],
                     [ 1.27775997E+01,  4.18076950E-02, -1.70010801E-05,
                       3.05150045E-09, -2.04735573E-13, -1.80715342E+04,
                      -3.45359087E+01])))

species(name='butane(5)',
        atoms='H:10 C:4',
        thermo=(NASA([100.00, 1147.61],
                     [ 2.16917732E+00,  3.43905396E-02, -1.61588988E-06,
                      -1.30723644E-08,  5.17339290E-12, -1.72505133E+04,
                       1.46546948E+01]),
                NASA([1147.61, 5000.00],
                     [ 6.78908105E+00,  3.03597352E-02, -1.21261601E-05,
                       2.19943993E-09, -1.50288474E-13, -1.91058195E+04,
                      -1.17331957E+01])))

species(name='butR1(6)',
        atoms='H:9 C:4',
        thermo=(NASA([100.00, 1050.57],
                     [ 2.25389478E+00,  3.16761898E-02,  2.90046318E-06,
                      -1.98055375E-08,  8.20530069E-12,  7.65264235E+03,
                       1.72724088E+01]),
                NASA([1050.57, 5000.00],
                     [ 7.59584316E+00,  2.60843227E-02, -1.01719151E-05,
                       1.85190382E-09, -1.28170540E-13,  5.71639959E+03,
                      -1.26362073E+01])))

species(name='butR2(7)',
        atoms='H:9 C:4',
        thermo=(NASA([100.00, 1083.85],
                     [ 2.48181739E+00,  2.70986988E-02,  1.03884305E-05,
                      -2.36646602E-08,  8.65263148E-12,  6.36961884E+03,
                       1.72943194E+01]),
                NASA([1083.85, 5000.00],
                     [ 6.12701786E+00,  2.82085804E-02, -1.13016610E-05,
                       2.07330445E-09, -1.43450382E-13,  4.72408731E+03,
                      -4.53111388E+00])))

species(name='butROO1(8)',
        atoms='H:9 C:4 O:2',
        thermo=(NASA([100.00, 1060.67],
                     [ 1.56798469E+00,  5.67641183E-02, -4.41691999E-05,
                       2.06263883E-08, -4.35461480E-12, -9.61175968E+03,
                       2.25651268E+01]),
                NASA([1060.67, 5000.00],
                     [ 6.81045068E+00,  3.69936727E-02, -1.62097540E-05,
                       3.05289322E-09, -2.12529879E-13, -1.07238621E+04,
                      -3.03551286E+00])))

species(name='butROO2(9)',
        atoms='H:9 C:4 O:2',
        thermo=(NASA([100.00, 1352.71],
                     [ 1.41174537E+00,  5.65301357E-02, -4.05021118E-05,
                       1.58077801E-08, -2.63472788E-12, -1.11239270E+04,
                       2.20767884E+01]),
                NASA([1352.71, 5000.00],
                     [ 9.67021550E+00,  3.21097707E-02, -1.34229034E-05,
                       2.46220591E-09, -1.68292013E-13, -1.33582042E+04,
                      -2.02605746E+01])))

species(name='C4H9O2(10)',
        atoms='H:9 C:4 O:2',
        thermo=(NASA([100.00, 485.28],
                     [ 1.95814010E+00,  5.28390390E-02, -1.62152702E-05,
                      -5.24079111E-08,  5.55503455E-11, -4.52650369E+03,
                       2.32677884E+01]),
                NASA([485.28, 5000.00],
                     [ 4.83968240E+00,  4.14028454E-02, -1.89326319E-05,
                       3.61987889E-09, -2.53625231E-13, -4.95118726E+03,
                       9.95534390E+00])))

species(name='C4H9O2(11)',
        atoms='H:9 C:4 O:2',
        thermo=(NASA([100.00, 1368.17],
                     [ 1.17751517E+00,  6.09183473E-02, -4.63200899E-05,
                       1.85887146E-08, -3.11648689E-12, -4.71138188E+03,
                       2.39464396E+01]),
                NASA([1368.17, 5000.00],
                     [ 1.15028963E+01,  3.07309852E-02, -1.32240901E-05,
                       2.46209557E-09, -1.69742822E-13, -7.53676278E+03,
                      -2.91043154E+01])))

species(name='C4H9O4(12)',
        atoms='H:9 C:4 O:4',
        thermo=(NASA([100.00, 811.46],
                     [ 1.07278389E-01,  9.17981931E-02, -1.11101089E-04,
                       7.88478790E-08, -2.33906502E-11, -2.17052862E+04,
                       3.02441918E+01]),
                NASA([811.46, 5000.00],
                     [ 1.01318337E+01,  4.23808626E-02, -1.97476901E-05,
                       3.79149739E-09, -2.65646966E-13, -2.33321116E+04,
                      -1.60236695E+01])))

species(name='C4H9O4(13)',
        atoms='H:9 C:4 O:4',
        thermo=(NASA([100.00, 811.46],
                     [ 1.07278389E-01,  9.17981931E-02, -1.11101089E-04,
                       7.88478790E-08, -2.33906502E-11, -2.17052862E+04,
                       3.02441918E+01]),
                NASA([811.46, 5000.00],
                     [ 1.01318337E+01,  4.23808626E-02, -1.97476901E-05,
                       3.79149739E-09, -2.65646966E-13, -2.33321116E+04,
                      -1.60236695E+01])))

species(name='C4H8O3(14)',
        atoms='H:8 C:4 O:3',
        thermo=(NASA([100.00, 507.99],
                     [ 1.45013673E+00,  6.54119199E-02, -4.72357026E-05,
                      -1.77798312E-08,  3.87855994E-11, -4.15937685E+04,
                       2.37239239E+01]),
                NASA([507.99, 5000.00],
                     [ 6.42065617E+00,  4.11773108E-02, -1.96848669E-05,
                       3.82035188E-09, -2.69080070E-13, -4.22910648E+04,
                       1.21776514E+00])))

species(name='C4H9O4(15)',
        atoms='H:9 C:4 O:4',
        thermo=(NASA([100.00, 769.48],
                     [-1.83152896E-01,  1.00073010E-01, -1.40275338E-04,
                       1.17959701E-07, -4.10054044E-11, -1.75001456E+04,
                       3.14999413E+01]),
                NASA([769.48, 5000.00],
                     [ 8.75466204E+00,  4.66844582E-02, -2.26980189E-05,
                       4.39310871E-09, -3.07147863E-13, -1.86705691E+04,
                      -7.94524805E+00])))

species(name='C4H9O4(16)',
        atoms='H:9 C:4 O:4',
        thermo=(NASA([100.00, 810.39],
                     [-1.16670355E-01,  9.76475890E-02, -1.21291366E-04,
                       8.66626272E-08, -2.57679026E-11, -1.72987351E+04,
                       3.04419192E+01]),
                NASA([810.39, 5000.00],
                     [ 1.08723935E+01,  4.34058193E-02, -2.08903126E-05,
                       4.06640756E-09, -2.87086177E-13, -1.90797910E+04,
                      -2.02634416E+01])))

species(name='C4H8O3(17)',
        atoms='H:8 C:4 O:3',
        thermo=(NASA([100.00, 901.40],
                     [ 1.12289211E+00,  6.86446594E-02, -6.76782171E-05,
                       3.99943754E-08, -1.03497674E-11, -3.93585273E+04,
                       2.44096792E+01]),
                NASA([901.40, 5000.00],
                     [ 7.78794055E+00,  3.90688997E-02, -1.84629579E-05,
                       3.59607332E-09, -2.55059851E-13, -4.05601294E+04,
                      -7.05360460E+00])))

species(name='C4H7O2(18)',
        atoms='H:7 C:4 O:2',
        thermo=(NASA([100.00, 1260.65],
                     [ 1.90572182E+00,  4.86758923E-02, -3.51990569E-05,
                       1.40008861E-08, -2.44554058E-12, -2.02786218E+04,
                       2.06246779E+01]),
                NASA([1260.65, 5000.00],
                     [ 7.62971981E+00,  3.05137512E-02, -1.35885037E-05,
                       2.57257102E-09, -1.79175888E-13, -2.17218065E+04,
                      -8.31611094E+00])))

species(name='C4H7O2(19)',
        atoms='H:7 C:4 O:2',
        thermo=(NASA([100.00, 531.46],
                     [ 2.03026645E+00,  4.95256771E-02, -3.29721680E-05,
                      -7.82075531E-09,  2.01077807E-11, -2.40013148E+04,
                       2.05043555E+01]),
                NASA([531.46, 5000.00],
                     [ 5.26183673E+00,  3.43345359E-02, -1.58683391E-05,
                       3.05273008E-09, -2.14716140E-13, -2.44737572E+04,
                       5.74346649E+00])))

species(name='C3H5O(20)',
        atoms='H:5 C:3 O:1',
        thermo=(NASA([100.00, 1004.38],
                     [ 2.84500050E+00,  1.88977534E-02,  1.21527508E-05,
                      -2.63150900E-08,  1.05750981E-11, -5.21538438E+03,
                       1.45336827E+01]),
                NASA([1004.38, 5000.00],
                     [ 7.57177382E+00,  1.55750697E-02, -6.03663502E-06,
                       1.12552415E-09, -8.02185843E-14, -6.94677746E+03,
                      -1.21833763E+01])))

species(name='H(21)',
        atoms='H:1',
        thermo=(NASA([100.00, 4563.27],
                     [ 2.50000000E+00, -1.91242771E-12,  2.45328669E-15,
                      -1.02376750E-18,  1.31368730E-22,  2.54727081E+04,
                      -4.54534058E-01]),
                NASA([4563.27, 5000.00],
                     [ 2.50166659E+00, -1.43051434E-06,  4.60249725E-10,
                      -6.57825717E-14,  3.52412298E-18,  2.54711555E+04,
                      -4.65138947E-01])))

species(name='O(22)',
        atoms='O:1',
        thermo=(NASA([100.00, 4563.27],
                     [ 2.50000000E+00, -1.91242771E-12,  2.45328669E-15,
                      -1.02376750E-18,  1.31368730E-22,  2.92468504E+04,
                       5.13119646E+00]),
                NASA([4563.27, 5000.00],
                     [ 2.50166659E+00, -1.43051434E-06,  4.60249725E-10,
                      -6.57825717E-14,  3.52412298E-18,  2.92452977E+04,
                       5.12059157E+00])))

species(name='OH(23)',
        atoms='H:1 O:1',
        thermo=(NASA([100.00, 1014.14],
                     [ 3.48525526E+00,  1.30494430E-03, -4.54557777E-06,
                       5.40750023E-09, -1.95651997E-12,  3.41245653E+03,
                       2.00460362E+00]),
                NASA([1014.14, 5000.00],
                     [ 2.90837206E+00,  9.69343149E-04, -1.87376364E-07,
                       3.90425279E-12,  1.35185501E-15,  3.66373116E+03,
                       5.45780278E+00])))

species(name='H2(24)',
        atoms='H:2',
        thermo=(NASA([100.00, 1962.86],
                     [ 3.42253775E+00,  2.86646406E-04, -4.14663192E-07,
                       4.27542107E-10, -9.38104335E-14, -1.03001137E+03,
                      -3.86868104E+00]),
                NASA([1962.86, 5000.00],
                     [ 2.74214758E+00,  5.79591420E-04,  1.97178466E-07,
                      -6.41045816E-11,  4.95967649E-15, -5.52240609E+02,
                       4.09302448E-01])))

species(name='H2O(25)',
        atoms='H:2 O:1',
        thermo=(NASA([100.00, 1329.66],
                     [ 3.99359486E+00, -5.07152903E-04,  2.62893530E-06,
                      -1.42190580E-09,  2.65087018E-13, -3.02741405E+04,
                      -1.02860742E-02]),
                NASA([1329.66, 5000.00],
                     [ 3.18128928E+00,  1.93649309E-03, -1.27757736E-07,
                      -3.97531547E-11,  5.21777663E-15, -3.00581222E+04,
                       4.14006459E+00])))

species(name='HO2(26)',
        atoms='H:1 O:2',
        thermo=(NASA([100.00, 932.08],
                     [ 4.03106547E+00, -2.55637026E-03,  1.47310916E-05,
                      -1.63677331E-08,  5.88952817E-12,  3.21462909E+02,
                       4.80120055E+00]),
                NASA([932.08, 5000.00],
                     [ 4.05113826E+00,  2.15393999E-03, -5.68213474E-07,
                       9.60356639E-11, -7.17410051E-15,  1.09370531E+02,
                       3.58810607E+00])))

species(name='H2O2(27)',
        atoms='H:2 O:2',
        thermo=(NASA([100.00, 944.52],
                     [ 3.73353594E+00,  4.09403310E-03,  5.39521294E-06,
                      -9.43956178E-09,  3.85567449E-12, -1.76797874E+04,
                       5.32475773E+00]),
                NASA([944.52, 5000.00],
                     [ 4.84202344E+00,  3.83445292E-03, -1.23557604E-06,
                       2.11819368E-10, -1.47107913E-14, -1.80870022E+04,
                      -1.00697102E+00])))

species(name='Ar(28)',
        atoms='Ar:1',
        thermo=(NASA([200.00, 1000.00],
                     [ 2.50000000E+00,  0.00000000E+00,  0.00000000E+00,
                       0.00000000E+00,  0.00000000E+00, -7.45375000E+02,
                       4.37967000E+00]),
                NASA([1000.00, 6000.00],
                     [ 2.50000000E+00,  0.00000000E+00,  0.00000000E+00,
                       0.00000000E+00,  0.00000000E+00, -7.45375000E+02,
                       4.37967000E+00])))

species(name='He(29)',
        atoms='He:1',
        thermo=(NASA([200.00, 1000.00],
                     [ 2.50000000E+00,  0.00000000E+00,  0.00000000E+00,
                       0.00000000E+00,  0.00000000E+00, -7.45375000E+02,
                       9.28724000E-01]),
                NASA([1000.00, 6000.00],
                     [ 2.50000000E+00,  0.00000000E+00,  0.00000000E+00,
                       0.00000000E+00,  0.00000000E+00, -7.45375000E+02,
                       9.28724000E-01])))

species(name='CO(30)',
        atoms='C:1 O:1',
        thermo=(NASA([100.00, 1669.94],
                     [ 3.59709645E+00, -1.02423583E-03,  2.83335851E-06,
                      -1.75824750E-09,  3.42585723E-13, -1.43331255E+04,
                       3.45319035E+00]),
                NASA([1669.94, 5000.00],
                     [ 2.92796561E+00,  1.81929327E-03, -8.35301936E-07,
                       1.51267795E-10, -9.88861786E-15, -1.42826491E+04,
                       6.50648268E+00])))

species(name='CO2(31)',
        atoms='C:1 O:2',
        thermo=(NASA([100.00, 987.54],
                     [ 3.27645045E+00,  2.74215378E-03,  7.26546569E-06,
                      -1.09995748E-08,  4.23162932E-12, -4.84954370E+04,
                       5.99716821E+00]),
                NASA([987.54, 5000.00],
                     [ 4.59094727E+00,  2.84042973E-03, -1.12035249E-06,
                       2.21825875E-10, -1.67368048E-14, -4.90194760E+04,
                      -1.66679642E+00])))

species(name='HCO(32)',
        atoms='H:1 C:1 O:1',
        thermo=(NASA([200.00, 1000.00],
                     [ 4.23755000E+00, -3.32075000E-03,  1.40030000E-05,
                      -1.34240000E-08,  4.37416000E-12,  3.87241000E+03,
                       3.30835000E+00]),
                NASA([1000.00, 6000.00],
                     [ 3.92002000E+00,  2.52279000E-03, -6.71004000E-07,
                       1.05616000E-10, -7.43798000E-15,  3.65343000E+03,
                       3.58077000E+00])))

species(name='C(33)',
        atoms='C:1',
        thermo=(NASA([200.00, 1000.00],
                     [ 2.55424000E+00, -3.21538000E-04,  7.33792000E-07,
                      -7.32235000E-10,  2.66521000E-13,  8.54427000E+04,
                       4.53131000E+00]),
                NASA([1000.00, 6000.00],
                     [ 2.60558000E+00, -1.95934000E-04,  1.06737000E-07,
                      -1.64239000E-11,  8.18706000E-16,  8.54117000E+04,
                       4.19239000E+00])))

species(name='CH(34)',
        atoms='H:1 C:1',
        thermo=(NASA([200.00, 1000.00],
                     [ 3.48976000E+00,  3.24322000E-04, -1.68998000E-06,
                       3.16284000E-09, -1.40618000E-12,  7.06126000E+04,
                       2.08428000E+00]),
                NASA([1000.00, 6000.00],
                     [ 2.52094000E+00,  1.76536000E-03, -4.61477000E-07,
                       5.92897000E-11, -3.34745000E-15,  7.09468000E+04,
                       7.40518000E+00])))

species(name='CH2(35)',
        atoms='H:2 C:1',
        thermo=(NASA([200.00, 1000.00],
                     [ 3.71758000E+00,  1.27391000E-03,  2.17347000E-06,
                      -3.48858000E-09,  1.65209000E-12,  4.58724000E+04,
                       1.75298000E+00]),
                NASA([1000.00, 6000.00],
                     [ 3.14632000E+00,  3.03671000E-03, -9.96474000E-07,
                       1.50484000E-10, -8.57336000E-15,  4.60413000E+04,
                       4.72342000E+00])))

species(name='CH3(36)',
        atoms='H:3 C:1',
        thermo=(NASA([200.00, 1000.00],
                     [ 3.65718000E+00,  2.12660000E-03,  5.45839000E-06,
                      -6.61810000E-09,  2.46571000E-12,  1.64227000E+04,
                       1.67354000E+00]),
                NASA([1000.00, 6000.00],
                     [ 2.97812000E+00,  5.79785000E-03, -1.97558000E-06,
                       3.07298000E-10, -1.79174000E-14,  1.65095000E+04,
                       4.72248000E+00])))

species(name='CH2O(37)',
        atoms='H:2 C:1 O:1',
        thermo=(NASA([200.00, 1000.00],
                     [ 4.79372000E+00, -9.90833000E-03,  3.73220000E-05,
                      -3.79285000E-08,  1.31773000E-11, -1.43792000E+04,
                       6.02798000E-01]),
                NASA([1000.00, 6000.00],
                     [ 3.16953000E+00,  6.19321000E-03, -2.25056000E-06,
                       3.65976000E-10, -2.20149000E-14, -1.45487000E+04,
                       6.04208000E+00])))

species(name='HCCO(38)',
        atoms='H:1 C:2 O:1',
        thermo=(NASA([200.00, 1000.00],
                     [ 1.87608000E+00,  2.21205000E-02, -3.58869000E-05,
                       3.05403000E-08, -1.01281000E-11,  2.01634000E+04,
                       1.36968000E+01]),
                NASA([1000.00, 6000.00],
                     [ 5.91479000E+00,  3.71409000E-03, -1.30137000E-06,
                       2.06473000E-10, -1.21477000E-14,  1.93596000E+04,
                      -5.50567000E+00])))

species(name='C2H(39)',
        atoms='H:1 C:2',
        thermo=(NASA([200.00, 1000.00],
                     [ 2.89868000E+00,  1.32988000E-02, -2.80733000E-05,
                       2.89485000E-08, -1.07502000E-11,  6.70616000E+04,
                       6.18548000E+00]),
                NASA([1000.00, 6000.00],
                     [ 3.66270000E+00,  3.82492000E-03, -1.36633000E-06,
                       2.13455000E-10, -1.23217000E-14,  6.71684000E+04,
                       3.92206000E+00])))

species(name='C2H2(40)',
        atoms='H:2 C:2',
        thermo=(NASA([200.00, 1000.00],
                     [ 8.08680000E-01,  2.33616000E-02, -3.55172000E-05,
                       2.80153000E-08, -8.50075000E-12,  2.64290000E+04,
                       1.39397000E+01]),
                NASA([1000.00, 6000.00],
                     [ 4.65878000E+00,  4.88397000E-03, -1.60829000E-06,
                       2.46975000E-10, -1.38606000E-14,  2.57594000E+04,
                      -3.99838000E+00])))

species(name='H2CC(41)',
        atoms='H:2 C:2',
        thermo=(NASA([200.00, 1000.00],
                     [ 3.28155000E+00,  6.97643000E-03, -2.38528000E-06,
                      -1.21078000E-09,  9.82042000E-13,  4.83192000E+04,
                       5.92036000E+00]),
                NASA([1000.00, 6000.00],
                     [ 4.27807000E+00,  4.75623000E-03, -1.63007000E-06,
                       2.54623000E-10, -1.48860000E-14,  4.80140000E+04,
                       6.39979000E-01])))

species(name='CH2(S)(42)',
        atoms='H:2 C:1',
        thermo=(NASA([200.00, 1000.00],
                     [ 4.19331000E+00, -2.33105000E-03,  8.15676000E-06,
                      -6.62986000E-09,  1.93233000E-12,  5.03662000E+04,
                      -7.46734000E-01]),
                NASA([1000.00, 6000.00],
                     [ 3.13502000E+00,  2.89594000E-03, -8.16668000E-07,
                       1.13573000E-10, -6.36263000E-15,  5.05041000E+04,
                       4.06031000E+00])))

species(name='CH3OH(43)',
        atoms='H:4 C:1 O:1',
        thermo=(NASA([200.00, 1000.00],
                     [ 5.65851000E+00, -1.62983000E-02,  6.91938000E-05,
                      -7.58373000E-08,  2.80428000E-11, -2.56120000E+04,
                      -8.97331000E-01]),
                NASA([1000.00, 6000.00],
                     [ 3.52727000E+00,  1.03179000E-02, -3.62893000E-06,
                       5.77448000E-10, -3.42183000E-14, -2.60029000E+04,
                       5.16759000E+00])))

species(name='CH3O(44)',
        atoms='H:3 C:1 O:1',
        thermo=(NASA([200.00, 1000.00],
                     [ 3.71181000E+00, -2.80463000E-03,  3.76551000E-05,
                      -4.73072000E-08,  1.86588000E-11,  1.29570000E+03,
                       6.57241000E+00]),
                NASA([1000.00, 6000.00],
                     [ 4.75779000E+00,  7.44142000E-03, -2.69705000E-06,
                       4.38091000E-10, -2.63537000E-14,  3.78112000E+02,
                      -1.96680000E+00])))

species(name='CH2CO(45)',
        atoms='H:2 C:2 O:1',
        thermo=(NASA([200.00, 1000.00],
                     [ 2.13241000E+00,  1.81319000E-02, -1.74093000E-05,
                       9.35336000E-09, -2.01725000E-12, -7.14809000E+03,
                       1.33808000E+01]),
                NASA([1000.00, 6000.00],
                     [ 5.75871000E+00,  6.35124000E-03, -2.25955000E-06,